*INCLUDE,INPUT=disc.inp

*MATERIAL, NAME=STEEL
*ELASTIC
210000,0.3
*DENSITY
7.8500E-9

*SOLID SECTION, MATERIAL=STEEL, ELSET=BODY

*BOUNDARY
LEFT,1,1,0
RIGHT,2,2,0

*STEP
*STATIC
*DLOAD
*INCLUDE,INPUT=SHAFT.dlo
*INCLUDE,INPUT=OUT.dlo

*NODE FILE
U
*EL FILE
S
*END STEP
