*INCLUDE, INPUT=mesh.inp

*MATERIAL, NAME=STEEL
*ELASTIC
210000,0.3
*DENSITY
7.8500E-9

*SHELL SECTION, MATERIAL=STEEL, ELSET=cylinder
0.01

*BOUNDARY
fix,1,3

*NODE
1000001,0,0,100
*NSET,NSET=DCload
1000001
*ELEMENT,TYPE=DCOUP3D
1000002,1000001
*ELSET,ELSET=DCload
1000002

*DISTRIBUTING COUPLING,ELSET=DCload
load,1

*STEP
*STATIC

*CLOAD
DCload,3,-1000

*NODE FILE
U, RF
*EL FILE
S
*END STEP
