*INCLUDE, INPUT=mesh.inp

*MATERIAL, NAME=AL
*ELASTIC
70E9,0.3
*DENSITY
2710.
*SHELL SECTION, MATERIAL=AL, ELSET=cylinder
0.01

*STEP
*FREQUENCY
15
*NODE FILE
U
*END STEP
