*INCLUDE,INPUT=mesh.inp

*MATERIAL, NAME=STEEL
*ELASTIC
210000,0.3
*DENSITY
7.8500E-9

*SOLID SECTION, MATERIAL=STEEL, ELSET=BODY

*NODE
1000001,0,0,9.525
1000002,0,0,9.525

*RIGID BODY,NSET=load,REF NODE=1000001,ROT NODE=1000002

*BOUNDARY
RIGHT,1,3,0

*STEP
*STATIC
*CLOAD
1000001,2,-22241

*NODE FILE
U
*EL FILE
S
*END STEP
