SUMMARY OF JOB INFORMATION
  STEP      INC     ATT  ITRS     TOT TIME     STEP TIMEINC TIME
     1          1     1     1  0.100000E+01  0.100000E+01  0.100000E+01
