**
** Heading +++++++++++++++++++++++++++++++++++++++++++++++++
**
*Heading
Hash: hPrjhfSF, Date: 03/13/2022, Unit system: MM_TON_S_C
**
** Nodes +++++++++++++++++++++++++++++++++++++++++++++++++++
**
*Node
1, 2.50000000E+001, 5.00000000E+001
2, 2.50000000E+001, 0.00000000E+000
3, 1.00000000E+002, 0.00000000E+000
4, 1.00000000E+002, 5.00000000E+001
5, 2.50000000E+001, 4.80000000E+001
6, 2.50000000E+001, 4.60000000E+001
7, 2.50000000E+001, 4.40000000E+001
8, 2.50000000E+001, 4.20000000E+001
9, 2.50000000E+001, 4.00000000E+001
10, 2.50000000E+001, 3.80000000E+001
11, 2.50000000E+001, 3.60000000E+001
12, 2.50000000E+001, 3.40000000E+001
13, 2.50000000E+001, 3.20000000E+001
14, 2.50000000E+001, 3.00000000E+001
15, 2.50000000E+001, 2.80000000E+001
16, 2.50000000E+001, 2.60000000E+001
17, 2.50000000E+001, 2.40000000E+001
18, 2.50000000E+001, 2.20000000E+001
19, 2.50000000E+001, 2.00000000E+001
20, 2.50000000E+001, 1.80000000E+001
** ... 4463 like lines cut
**
** Elements ++++++++++++++++++++++++++++++++++++++++++++++++
**
*Element, Type=CAX6, Elset=section
1, 1, 5, 90, 1154, 1155, 1156
2, 5, 6, 127, 1157, 1158, 1159
3, 7, 8, 128, 1160, 1161, 1162
4, 9, 10, 129, 1163, 1164, 1165
5, 11, 12, 130, 1166, 1167, 1168
6, 13, 14, 131, 1169, 1170, 1171
7, 15, 16, 132, 1172, 1173, 1174
8, 17, 18, 133, 1175, 1176, 1177
9, 19, 20, 134, 1178, 1179, 1180
10, 21, 22, 135, 1181, 1182, 1183
11, 23, 24, 136, 1184, 1185, 1186
12, 25, 26, 137, 1187, 1188, 1189
13, 27, 28, 138, 1190, 1191, 1192
14, 28, 2, 139, 1193, 1194, 1195
15, 138, 28, 139, 1191, 1195, 1196
16, 2, 29, 139, 1197, 1198, 1194
17, 29, 30, 139, 1199, 1200, 1198
18, 30, 31, 140, 1201, 1202, 1203
19, 32, 33, 141, 1204, 1205, 1206
20, 34, 35, 142, 1207, 1208, 1209
** ... 2158 like lines cut
**
** Node sets +++++++++++++++++++++++++++++++++++++++++++++++
**
*Nset, Nset=Internal_Selection-1_Displacement_rotation-1
2, 3, 29, 30, 31, 32, 33, 34, 35, 36, 37, 38, 39, 40, 41, 42, 
43, 44, 45, 46, 47, 48, 49, 50, 51, 52, 53, 54, 55, 56, 57, 58, 
59, 60, 61, 62, 63, 64, 65, 1197, 1199, 1201, 1204, 1207, 1210, 1213, 1216, 1219, 
1222, 1225, 1228, 1231, 1234, 1237, 1240, 1243, 1246, 1249, 1252, 1255, 1479, 1485, 1488, 1492, 
1495, 1498, 1501, 1504, 1507, 1510, 1513, 1516, 1519, 1522, 1525, 1528, 1531
*Nset, Nset=Internal-1_Internal_Selection-1_Pressure-1
1, 2, 5, 6, 7, 8, 9, 10, 11, 12, 13, 14, 15, 16, 17, 18, 
19, 20, 21, 22, 23, 24, 25, 26, 27, 28, 1154, 1157, 1160, 1163, 1166, 1169, 
1172, 1175, 1178, 1181, 1184, 1187, 1190, 1193, 1444, 1447, 1450, 1453, 1456, 1459, 1462, 1465, 
1468, 1471, 1474
**
** Element sets ++++++++++++++++++++++++++++++++++++++++++++
**
*Elset, Elset=Internal-1_Internal_Selection-1_Pressure-1_S3
1, 2, 3, 4, 5, 6, 7, 8, 9, 10, 11, 12, 13, 14, 124, 125, 
126, 127, 128, 129, 130, 131, 132, 133, 134
**
** Surfaces ++++++++++++++++++++++++++++++++++++++++++++++++
**
*Surface, Name=Internal_Selection-1_Pressure-1, Type=Element
Internal-1_Internal_Selection-1_Pressure-1_S3, S1
**
** Physical constants ++++++++++++++++++++++++++++++++++++++
**
**
** Materials +++++++++++++++++++++++++++++++++++++++++++++++
**
*Material, Name=16MnCr5
*Density
7.8E-09
*Elastic
210000, 0.28
*Expansion, Zero=20
1.1E-05
*Conductivity
14
*Specific heat
440000000
**
** Sections ++++++++++++++++++++++++++++++++++++++++++++++++
**
*Solid section, Elset=section, Material=16MnCr5
**
** Pre-tension sections ++++++++++++++++++++++++++++++++++++
**
**
** Constraints +++++++++++++++++++++++++++++++++++++++++++++
**
**
** Surface interactions ++++++++++++++++++++++++++++++++++++
**
**
** Contact pairs +++++++++++++++++++++++++++++++++++++++++++
**
**
** Initial conditions ++++++++++++++++++++++++++++++++++++++
**
**
** Steps +++++++++++++++++++++++++++++++++++++++++++++++++++
**
**
** Step-1 ++++++++++++++++++++++++++++++++++++++++++++++++++
**
*Step
*Static
**
** Boundary conditions +++++++++++++++++++++++++++++++++++++
**
*Boundary, op=New
** Name: Displacement_rotation-1
*Boundary
Internal_Selection-1_Displacement_rotation-1, 2, 2, 0
**
** Loads +++++++++++++++++++++++++++++++++++++++++++++++++++
**
*Cload, op=New
*Dload, op=New
** Name: Pressure-1
*Dload
Internal-1_Internal_Selection-1_Pressure-1_S3, P1, 1
**
** Defined fields ++++++++++++++++++++++++++++++++++++++++++
**
**
** History outputs +++++++++++++++++++++++++++++++++++++++++
**
**
** Field outputs +++++++++++++++++++++++++++++++++++++++++++
**
*Node file
RF, U
*El file, Output=3D
S, E
**
** End step ++++++++++++++++++++++++++++++++++++++++++++++++
**
*End step
