*INCLUDE,INPUT=mesh.inp

*MATERIAL, NAME=STEEL
*ELASTIC
210000,0.3
*DENSITY
7.8500E-9

*SOLID SECTION, MATERIAL=STEEL, ELSET=BODY

*NODE
1000001,0,0,0
*NSET,NSET=DCload
1000001
*ELEMENT,TYPE=DCOUP3D
1000002,1000001
*ELSET,ELSET=DCload
1000002

*DISTRIBUTING COUPLING,ELSET=DCload
load,1

*BOUNDARY
RIGHT,1,3,0

*STEP
*STATIC
*CLOAD
DCload,2,-22241

*NODE FILE
U
*EL FILE
S
*END STEP
