*INCLUDE, INPUT=mesh.inp

*MATERIAL,NAME=steel
*ELASTIC
206000,0.3

*SOLID SECTION, MATERIAL=steel, ELSET=plate
*INCLUDE, INPUT=thickness.inp

*NODE
1000001,0,100,0
*NSET,NSET=DCload
1000001

*RIGID BODY,NSET=load,REF NODE=1000001

*BOUNDARY
fix,2,2,0

*STEP
*STATIC
*CLOAD
*INCLUDE, INPUT=load.inp

*NODE FILE 
U,
  *EL FILE
S,
*NODE PRINT,NSET=fix
RF
*NODE PRINT,NSET=hole
RF
*END STEP
